@<TRIPOS>MOLECULE
EXE
 46 49 0 0 0
SMALL
GASTEIGER

@<TRIPOS>ATOM
      1  O          5.0130   -1.1770    0.7790 O.2     0  EXE       -0.2968
      2  O         -5.2840   -0.5230    1.3500 O.2     0  EXE       -0.2879
      3  C          2.0370    0.5810    0.4330 C.3     0  EXE       -0.0251
      4  C          0.6660    0.7140   -0.2350 C.3     0  EXE       -0.0294
      5  C          2.8570   -0.5750   -0.1740 C.3     0  EXE        0.0293
      6  C         -0.1320   -0.6150    0.0080 C.3     0  EXE       -0.0247
      7  C          2.1320   -1.8780    0.1470 C.3     0  EXE       -0.0404
      8  C          0.6960   -1.8650   -0.4110 C.3     0  EXE       -0.0480
      9  C         -1.5800   -0.5440   -0.6100 C.3     0  EXE        0.0147
     10  C          3.0010    1.7620    0.4350 C.3     0  EXE       -0.0424
     11  C         -0.1150    1.9230    0.3010 C.3     0  EXE       -0.0245
     12  C          4.1630   -0.3250    0.5580 C.2     0  EXE        0.1395
     13  C          4.3020    1.1350    0.9560 C.3     0  EXE        0.0067
     14  C          3.1690   -0.4640   -1.6780 C.3     0  EXE       -0.0526
     15  C         -2.2690    0.7250   -0.0890 C.2     0  EXE       -0.0312
     16  C         -1.5150    1.9650   -0.2520 C.2     0  EXE       -0.0500
     17  C         -1.5590   -0.4980   -2.1570 C.3     0  EXE       -0.0518
     18  C         -2.3740   -1.7900   -0.2420 C.2     0  EXE       -0.0699
     19  C         -3.4520    0.7250    0.5470 C.2     0  EXE       -0.0107
     20  C         -3.5520   -1.7960    0.3900 C.2     0  EXE       -0.0180
     21  C         -2.0170    3.0510   -0.8600 C.2     0  EXE       -0.0952
     22  C         -4.1870   -0.5310    0.8020 C.2     0  EXE        0.1790
     23  H          1.8470    0.3560    1.4970 H       0  EXE        0.0313
     24  H          0.8070    0.8640   -1.3120 H       0  EXE        0.0310
     25  H         -0.2610   -0.7060    1.1000 H       0  EXE        0.0315
     26  H          2.0960   -2.0340    1.2330 H       0  EXE        0.0275
     27  H          2.6780   -2.7360   -0.2620 H       0  EXE        0.0275
     28  H          0.7420   -1.9370   -1.5030 H       0  EXE        0.0269
     29  H          0.2020   -2.7770   -0.0620 H       0  EXE        0.0269
     30  H          2.6690    2.5760    1.0870 H       0  EXE        0.0272
     31  H          3.1370    2.1750   -0.5700 H       0  EXE        0.0272
     32  H          0.4230    2.8460    0.0530 H       0  EXE        0.0316
     33  H         -0.1690    1.8800    1.3980 H       0  EXE        0.0316
     34  H          4.3610    1.2000    2.0470 H       0  EXE        0.0342
     35  H          5.1810    1.5870    0.4910 H       0  EXE        0.0342
     36  H          3.7820   -1.3150   -2.0000 H       0  EXE        0.0239
     37  H          2.2700   -0.4580   -2.3000 H       0  EXE        0.0239
     38  H          3.7420    0.4370   -1.9200 H       0  EXE        0.0239
     39  H         -1.1520   -1.4190   -2.5890 H       0  EXE        0.0241
     40  H         -2.5730   -0.3800   -2.5620 H       0  EXE        0.0241
     41  H         -0.9650    0.3350   -2.5460 H       0  EXE        0.0241
     42  H         -1.9740   -2.7540   -0.5480 H       0  EXE        0.0582
     43  H         -3.9070    1.6360    0.9240 H       0  EXE        0.0659
     44  H         -4.0730   -2.7220    0.6010 H       0  EXE        0.0653
     45  H         -1.4270    3.9550   -0.9700 H       0  EXE        0.0538
     46  H         -3.0230    3.0650   -1.2680 H       0  EXE        0.0538
@<TRIPOS>BOND
     1     1    12    2
     2     2    22    2
     3     3     4    1
     4     3     5    1
     5     3    10    1
     6     3    23    1
     7     4     6    1
     8     4    11    1
     9     4    24    1
    10     5     7    1
    11     5    12    1
    12     5    14    1
    13     6     8    1
    14     6     9    1
    15     6    25    1
    16     7     8    1
    17     7    26    1
    18     7    27    1
    19     8    28    1
    20     8    29    1
    21     9    15    1
    22     9    17    1
    23     9    18    1
    24    10    13    1
    25    10    30    1
    26    10    31    1
    27    11    16    1
    28    11    32    1
    29    11    33    1
    30    12    13    1
    31    13    34    1
    32    13    35    1
    33    14    36    1
    34    14    37    1
    35    14    38    1
    36    15    16    1
    37    15    19    2
    38    16    21    2
    39    17    39    1
    40    17    40    1
    41    17    41    1
    42    18    20    2
    43    18    42    1
    44    19    22    1
    45    19    43    1
    46    20    22    1
    47    20    44    1
    48    21    45    1
    49    21    46    1
